/*--------------------------------*- C++ -*----------------------------------*\
| =========                 |                                                 |
| \\      /  F ield         | OpenFOAM: The Open Source CFD Toolbox           |
|  \\    /   O peration     | Version:  plus                                  |
|   \\  /    A nd           | Web:      www.OpenFOAM.com                      |
|    \\/     M anipulation  |                                                 |
\*---------------------------------------------------------------------------*/
FoamFile
{
    version     2.0;
    format      ascii;
    class       dictionary;
    object      topoSetDict;
}

// * * * * * * * * * * * * * * * * * * * * * * * * * * * * * * * * * * * * * //

actions
(
    {
        name    strip1;
        type    cellSet;
        action  new;
        source  radialStripToCell;
        sourceInfo
        {
            centre (0.1802 -0.01640 0);
            outerRadius 0.1200;
            innerRadius 0.10555;
            axialStart 0.1800;
            axialEnd 0.1805;
            angularStart 160;
            angularEnd 200;
        }
    }
    {
        name    strip2;
        type    cellSet;
        action  new;
        source  radialStripToCell;
        sourceInfo
        {
            centre (0.1804 -0.01640 0);
            outerRadius 0.1200;
            innerRadius 0.1056;
            axialStart 0.1805;
            axialEnd 0.1808;
            angularStart 160;
            angularEnd 200;
        }
    }
);

// ************************************************************************* //

